/*--------------------------------*- C++ -*----------------------------------*\ 
| =========                 |                                                 | 
| \      /  F ield         | OpenFOAM: The Open Source CFD Toolbox           | 
|  \    /   O peration     | Version:  4.x                                   | 
|   \  /    A nd           | Web:      www.OpenFOAM.org                      | 
|    \/     M anipulation  |                                                 | 
\*---------------------------------------------------------------------------*/ 
FoamFile 
{ 
    version     2.0; 
    format      ascii; 
    class       dictionary; 
    object      blockMeshDict; 
} 
// * * * * * * * * * * * * * * * * * * * * * * * * * * * * * * * * * * * * * // 
 
convertToMeters 0.001; 
 
vertices 
( 
    (1.06 -1.06 0.0)               //0 
    (-1.06 -1.06 0.0)               //1 
    (-1.06 1.06 0.0)               //2 
    (1.06 1.06 0.0)               //3 
    (1.49906637612 -1.49906637612 0.0)               //4 
    (-1.49906637612 -1.49906637612 0.0)               //5 
    (-1.49906637612 1.49906637612 0.0)               //6 
    (1.49906637612 1.49906637612 0.0)               //7 
    (1.06 -1.06 793.92)               //8 
    (-1.06 -1.06 793.92)               //9 
    (-1.06 1.06 793.92)               //10 
    (1.06 1.06 793.92)               //11 
    (1.49906637612 -1.49906637612 793.92)               //12 
    (-1.49906637612 -1.49906637612 793.92)               //13 
    (-1.49906637612 1.49906637612 793.92)               //14 
    (1.49906637612 1.49906637612 793.92)               //15 
); 
 
blocks 
( 
	hex (1 0 3 2 9 8 11 10)
	(10 10 5955)
	simpleGrading (1 1 1)

	hex (0 4 7 3 8 12 15 11)
	(15 10 5955)
	simpleGrading (0.1 1 1)

	hex (3 7 6 2 11 15 14 10)
	(15 10 5955)
	simpleGrading (0.1 1 1)

	hex (2 6 5 1 10 14 13 9)
	(15 10 5955)
	simpleGrading (0.1 1 1)

	hex (1 5 4 0 9 13 12 8)
	(15 10 5955)
	simpleGrading (0.1 1 1)

); 

edges 
( 
	arc 3 0 (1.4204 0.0 0.0)
	arc 0 1 (8.69744156754e-17 -1.4204 0.0)
	arc 1 2 (-1.4204 1.73948831351e-16 0.0)
	arc 2 3 (8.69744156754e-17 1.4204 0.0)
	arc 7 4 (2.12 0.0 0.0)
	arc 4 5 (1.2981256071e-16 -2.12 0.0)
	arc 5 6 (-2.12 2.59625121419e-16 0.0)
	arc 6 7 (1.2981256071e-16 2.12 0.0)
	arc 11 8 (1.4204 0.0 793.92)
	arc 8 9 (8.69744156754e-17 -1.4204 793.92)
	arc 9 10 (-1.4204 1.73948831351e-16 793.92)
	arc 10 11 (8.69744156754e-17 1.4204 793.92)
	arc 15 12 (2.12 0.0 793.92)
	arc 12 13 (1.2981256071e-16 -2.12 793.92)
	arc 13 14 (-2.12 2.59625121419e-16 793.92)
	arc 14 15 (1.2981256071e-16 2.12 793.92)
); 

boundary 
( 
    inlet
    {
        type mappedPatch;
        offset          (0 0 0.01696);
        sampleRegion    region0;
        sampleMode      nearestCell;
        samplePatch     none;
        faces
        (
			(1 0 3 2)
			(0 4 7 3)
			(3 7 6 2)
			(2 6 5 1)
			(1 5 4 0)
        );
    }
    outlet
    {
        type patch;
        faces
        (
			(9 8 11 10)
			(8 12 15 11)
			(11 15 14 10)
			(10 14 13 9)
			(9 13 12 8)
        );
    }
    walls
    {
        type wall;
        faces
        (
			(7 4 12 15)
			(4 5 13 12)
			(5 6 14 13)
			(6 7 15 14)
        );
    }
); 

