/*--------------------------------*- C++ -*----------------------------------*\
| =========                 |                                                 |
| \\      /  F ield         | OpenFOAM: The Open Source CFD Toolbox           |
|  \\    /   O peration     | Version:  v1806                                 |
|   \\  /    A nd           | Web:      www.OpenFOAM.com                      |
|    \\/     M anipulation  |                                                 |
\*---------------------------------------------------------------------------*/
FoamFile
{
    version     2.0;
    format      ascii;
    class       dictionary;
    location    "system";
    object      controlDict;
}
// * * * * * * * * * * * * * * * * * * * * * * * * * * * * * * * * * * * * * //

application     buoyantPimpleFoam;

startFrom       latestTime;

startTime       0;

stopAt          endTime;

endTime         10;

deltaT          1e-8;

writeControl    adjustableRunTime;;

writeInterval   5e-4;

purgeWrite      0;

writeFormat     ascii;

writePrecision  6;

writeCompression off;

timeFormat      general;

timePrecision   6;

runTimeModifiable true;

adjustTimeStep  yes;

maxCo          0.2;

functions
{
    fieldAverage1
    {
        type            fieldAverage;
        libs            ("libfieldFunctionObjects.so");
        writeControl    writeTime;
        //timeStart       0.002;
        fields
        (
            U
            {
                mean        on;
                prime2Mean  on;
                base        time;
            }
            T
            {
                mean        on;
                prime2Mean  on;
                base        time;
            }
        );
    }

    yPlus
    {
        type            yPlus;
        libs            ("libfieldFunctionObjects.so");
        writeControl    writeTime;
    }

    probes
    {
        type            probes;
        libs            ("libsampling.so");
        writeControl   timeStep;
        writeInterval  10;
        probeLocations
        (
            (0 0 0.76)
        );
        fixedLocations  false;
        fields
        (
            T
            U
        );
    }

	#include "sample_lines"
	#include "sample_surface"

    #includeFunc patchAverage(name=inlet, fields=(TMean UMean))
    #includeFunc patchAverage(name=outlet, fields=(TMean UMean))
    #includeFunc flowRatePatch(name=outlet)
}




// ************************************************************************* //
