/*--------------------------------*- C++ -*----------------------------------*\
| =========                 |                                                 |
| \\      /  F ield         | OpenFOAM: The Open Source CFD Toolbox           |
|  \\    /   O peration     | Version:  v1812                                 |
|   \\  /    A nd           | Web:      www.OpenFOAM.com                      |
|    \\/     M anipulation  |                                                 |
\*---------------------------------------------------------------------------*/
FoamFile
{
    version     2.0;
    format      ascii;
    class       dictionary;
    location    "system";
    object      fvSolution;
}
// * * * * * * * * * * * * * * * * * * * * * * * * * * * * * * * * * * * * * //

solvers
{
    "rho.*"
    {
        solver          PCG;
        preconditioner  DIC;
        tolerance       0;
        relTol          0;
    }
    p_rgh
    {
        solver          GAMG;
        tolerance       1e-7;
        relTol          0.001;
        smoother        DICGaussSeidel;
        nPreSweeps      0;
        nPostSweeps     2;
        cacheAgglomeration true;
        nCellsInCoarsestLevel 10;
        agglomerator    faceAreaPair;
        mergeLevels     1;
    }

    p_rghFinal
    {
        $p_rgh;
        relTol          0;
    }

    "(U|h|k|epsilon|omega)"
    {
        solver          PBiCGStab;
        preconditioner  DILU;
        tolerance       1e-7;
        relTol          0.001;
    }

    "(U|h|k|epsilon|omega)Final"
    {
        $U;
        relTol          0;
    }

}

PIMPLE
{
    momentumPredictor yes;
    nOuterCorrectors 1;
    nNonOrthogonalCorrectors 1;
    nCorrectors       2;
    pRefCell          0;
    pRefValue         325920;
}

relaxationFactors
{
    equations
    {
        ".*"   1.0;
    }
}


// ************************************************************************* //
