/*--------------------------------*- C++ -*----------------------------------*\
  =========                 |
  \\      /  F ield         | OpenFOAM: The Open Source CFD Toolbox
   \\    /   O peration     | Website:  https://openfoam.org
    \\  /    A nd           | Version:  dev
     \\/     M anipulation  |
\*---------------------------------------------------------------------------*/
FoamFile
{
    version     2.0;
    format      ascii;
    class       dictionary;
    location    "system";
    object      topoSetDict;
}
// * * * * * * * * * * * * * * * * * * * * * * * * * * * * * * * * * * * * * //

D	0.00424;
D_6	#calc "$D*6.";
H	#calc "$D_6+0.760";

actions
(

    {
        name    heatedWalls;
        type    faceSet;
        action  new;
        source  patchToFace;
        sourceInfo
        {
            name    walls;
        }
    }

    {
        name    heatedWalls;
        type    faceSet;
        action  delete;
        source  boxToFace;
        sourceInfo
        {
            box (-100 -100 -100)(100 100 $D_6);
        }
    }
    {
        name    heatedWalls;
        type    faceSet;
        action  delete;
        source  boxToFace;
        sourceInfo
        {
            box (-100 -100 $H)(100 100 100);
        }
    }

);

// ************************************************************************* //
